# generated using pymatgen
data_Li6MnO4
_symmetry_space_group_name_H-M   'P 1'
_cell_length_a   8.20311505
_cell_length_b   8.20307727
_cell_length_c   8.20309130
_cell_angle_alpha   109.61368201
_cell_angle_beta   70.59993961
_cell_angle_gamma   70.60014818
_symmetry_Int_Tables_number   1
_chemical_formula_structural   Li6MnO4
_chemical_formula_sum   'Li24 Mn4 O16'
_cell_volume   424.92287396
_cell_formula_units_Z   4
loop_
 _symmetry_equiv_pos_site_id
 _symmetry_equiv_pos_as_xyz
  1  'x, y, z'
loop_
 _atom_site_type_symbol
 _atom_site_label
 _atom_site_symmetry_multiplicity
 _atom_site_fract_x
 _atom_site_fract_y
 _atom_site_fract_z
 _atom_site_occupancy
  Li  Li0  1  0.25001000  0.35647200  0.10645900  1
  Li  Li1  1  0.25001500  0.85647000  0.60645500  1
  Li  Li2  1  0.25000400  0.10646800  0.85646700  1
  Li  Li3  1  0.25000200  0.60647200  0.35646400  1
  Li  Li4  1  0.75000900  0.14353500  0.39353000  1
  Li  Li5  1  0.75000200  0.64353800  0.89353400  1
  Li  Li6  1  0.75001300  0.39353800  0.64352000  1
  Li  Li7  1  0.75001500  0.89353500  0.14352200  1
  Li  Li8  1  0.03443100  0.62499500  0.09056200  1
  Li  Li9  1  0.03443500  0.12498900  0.59055200  1
  Li  Li10  1  0.03444500  0.84058900  0.87499800  1
  Li  Li11  1  0.03444100  0.34058700  0.37499200  1
  Li  Li12  1  0.46559500  0.40941900  0.87497800  1
  Li  Li13  1  0.46559900  0.90940900  0.37497100  1
  Li  Li14  1  0.46558900  0.62499100  0.65940300  1
  Li  Li15  1  0.46558500  0.12498400  0.15940000  1
  Li  Li16  1  0.53443200  0.87498900  0.84055800  1
  Li  Li17  1  0.53443600  0.37499600  0.34056000  1
  Li  Li18  1  0.53443600  0.09056000  0.62498400  1
  Li  Li19  1  0.53443100  0.59057100  0.12499100  1
  Li  Li20  1  0.96557500  0.65943100  0.62500000  1
  Li  Li21  1  0.96557900  0.15943300  0.12500700  1
  Li  Li22  1  0.96558200  0.87499300  0.40941000  1
  Li  Li23  1  0.96557800  0.37499900  0.90942000  1
  Mn  Mn24  1  0.25001000  0.87501100  0.12500400  1
  Mn  Mn25  1  0.75001300  0.62501000  0.37499600  1
  Mn  Mn26  1  0.25000800  0.37500300  0.62499300  1
  Mn  Mn27  1  0.75001000  0.12501200  0.87500500  1
  O  O28  1  0.01612100  0.60332200  0.35333600  1
  O  O29  1  0.01610500  0.10332200  0.85332800  1
  O  O30  1  0.25000300  0.11944700  0.10332100  1
  O  O31  1  0.24999500  0.61942900  0.60332100  1
  O  O32  1  0.25001400  0.35331700  0.86940900  1
  O  O33  1  0.25000700  0.85332500  0.36943300  1
  O  O34  1  0.48390200  0.36942400  0.11941300  1
  O  O35  1  0.48388600  0.86944800  0.61943000  1
  O  O36  1  0.51610700  0.13057600  0.38056500  1
  O  O37  1  0.51612200  0.63055400  0.88054900  1
  O  O38  1  0.74998900  0.38056700  0.39667000  1
  O  O39  1  0.74999600  0.88058500  0.89667000  1
  O  O40  1  0.75001100  0.14667200  0.63057200  1
  O  O41  1  0.75001800  0.64666500  0.13054700  1
  O  O42  1  0.98389400  0.89667300  0.14667000  1
  O  O43  1  0.98390900  0.39667400  0.64667800  1
