# generated using pymatgen
data_Na3PS4
_symmetry_space_group_name_H-M   'P 1'
_cell_length_a   14.07912909
_cell_length_b   14.17838616
_cell_length_c   14.09722657
_cell_angle_alpha   90.00000000
_cell_angle_beta   92.95002999
_cell_angle_gamma   90.00000000
_symmetry_Int_Tables_number   1
_chemical_formula_structural   Na3PS4
_chemical_formula_sum   'Na48 P16 S64'
_cell_volume   2810.34969039
_cell_formula_units_Z   16
loop_
 _symmetry_equiv_pos_site_id
 _symmetry_equiv_pos_as_xyz
  1  'x, y, z'
loop_
 _atom_site_type_symbol
 _atom_site_label
 _atom_site_symmetry_multiplicity
 _atom_site_fract_x
 _atom_site_fract_y
 _atom_site_fract_z
 _atom_site_occupancy
  Na  Na1  1  0.260770  0.269944  0.983115  1
  Na  Na2  1  0.259329  0.239433  0.489216  1
  Na  Na3  1  0.293084  0.752730  0.012399  1
  Na  Na4  1  0.188303  0.766843  0.493690  1
  Na  Na5  1  0.741005  0.275559  0.979749  1
  Na  Na6  1  0.762059  0.305751  0.476387  1
  Na  Na7  1  0.793503  0.815164  0.005720  1
  Na  Na8  1  0.741630  0.753286  0.504779  1
  Na  Na9  1  0.980776  0.269374  0.243144  1
  Na  Na10  1  0.003348  0.250091  0.740106  1
  Na  Na11  1  0.018592  0.743186  0.252120  1
  Na  Na12  1  0.029497  0.731350  0.765144  1
  Na  Na13  1  0.501161  0.264975  0.264846  1
  Na  Na14  1  0.485424  0.150945  0.759129  1
  Na  Na15  1  0.489051  0.788307  0.244824  1
  Na  Na16  1  0.505520  0.680018  0.807103  1
  Na  Na17  1  0.234155  0.009418  0.305298  1
  Na  Na18  1  0.267655  0.030051  0.795558  1
  Na  Na19  1  0.255382  0.520302  0.261146  1
  Na  Na20  1  0.248659  0.514223  0.769336  1
  Na  Na21  1  0.756545  0.996849  0.229079  1
  Na  Na22  1  0.752106  0.992452  0.734685  1
  Na  Na23  1  0.702743  0.503484  0.214721  1
  Na  Na24  1  0.783239  0.496998  0.791754  1
  Na  Na25  1  0.943425  0.508691  0.235009  1
  Na  Na26  1  0.030114  0.496977  0.722933  1
  Na  Na27  1  0.024302  0.017710  0.274523  1
  Na  Na28  1  0.024774  0.995745  0.735847  1
  Na  Na29  1  0.502791  0.520182  0.253303  1
  Na  Na30  1  0.480115  0.469207  0.759504  1
  Na  Na31  1  0.465138  0.007180  0.261149  1
  Na  Na32  1  0.512146  0.937887  0.736364  1
  Na  Na33  1  0.239737  0.007813  0.062137  1
  Na  Na34  1  0.256956  0.985800  0.549677  1
  Na  Na35  1  0.253449  0.519757  0.022886  1
  Na  Na36  1  0.258862  0.537720  0.540779  1
  Na  Na37  1  0.771854  0.067782  0.986259  1
  Na  Na38  1  0.735946  0.997376  0.483763  1
  Na  Na39  1  0.766603  0.555311  0.001875  1
  Na  Na40  1  0.736262  0.530786  0.470761  1
  Na  Na41  1  0.021698  0.255573  0.993129  1
  Na  Na42  1  0.955052  0.238208  0.519017  1
  Na  Na43  1  0.989674  0.762654  0.008845  1
  Na  Na44  1  0.967441  0.752008  0.543872  1
  Na  Na45  1  0.507925  0.263455  0.014633  1
  Na  Na46  1  0.583591  0.238112  0.522138  1
  Na  Na47  1  0.541290  0.798442  0.996128  1
  Na  Na48  1  0.503350  0.760583  0.474836  1
  P  P49  1  0.003091  0.017579  0.005169  1
  P  P50  1  0.982468  0.002050  0.493563  1
  P  P51  1  0.004221  0.522043  0.987686  1
  P  P52  1  0.989783  0.521247  0.482099  1
  P  P53  1  0.511304  0.022868  0.003461  1
  P  P54  1  0.490354  0.987963  0.506553  1
  P  P55  1  0.511607  0.516728  0.991370  1
  P  P56  1  0.509407  0.506066  0.497553  1
  P  P57  1  0.250318  0.242620  0.247409  1
  P  P58  1  0.232615  0.253244  0.728751  1
  P  P59  1  0.253199  0.764719  0.259557  1
  P  P60  1  0.255135  0.764316  0.744578  1
  P  P61  1  0.748693  0.246580  0.238564  1
  P  P62  1  0.757414  0.260915  0.747254  1
  P  P63  1  0.734263  0.749210  0.263967  1
  P  P64  1  0.763904  0.746500  0.744657  1
  S  S65  1  0.050144  0.114696  0.104583  1
  S  S66  1  0.075944  0.070626  0.575382  1
  S  S67  1  0.066097  0.606243  0.084082  1
  S  S68  1  0.090156  0.598736  0.572528  1
  S  S69  1  0.583403  0.085579  0.114257  1
  S  S70  1  0.581739  0.056151  0.605101  1
  S  S71  1  0.578279  0.627056  0.059102  1
  S  S72  1  0.609535  0.575149  0.581362  1
  S  S73  1  0.432736  0.428925  0.082929  1
  S  S74  1  0.426094  0.420636  0.578894  1
  S  S75  1  0.421705  0.913730  0.065258  1
  S  S76  1  0.417323  0.884245  0.575972  1
  S  S77  1  0.908798  0.427874  0.057938  1
  S  S78  1  0.906670  0.437300  0.559644  1
  S  S79  1  0.910621  0.933698  0.087879  1
  S  S80  1  0.884168  0.952175  0.596695  1
  S  S81  1  0.395880  0.078247  0.436751  1
  S  S82  1  0.415593  0.111064  0.934453  1
  S  S83  1  0.409210  0.598145  0.419988  1
  S  S84  1  0.408175  0.574495  0.906582  1
  S  S85  1  0.915293  0.082253  0.405487  1
  S  S86  1  0.931485  0.101258  0.911832  1
  S  S87  1  0.903017  0.612671  0.406359  1
  S  S88  1  0.935778  0.605896  0.892334  1
  S  S89  1  0.060601  0.445633  0.390682  1
  S  S90  1  0.095567  0.419291  0.936463  1
  S  S91  1  0.050721  0.895319  0.416102  1
  S  S92  1  0.105091  0.928883  0.955630  1
  S  S93  1  0.580283  0.408874  0.404802  1
  S  S94  1  0.590421  0.435272  0.902016  1
  S  S95  1  0.570811  0.926751  0.405538  1
  S  S96  1  0.615392  0.963143  0.920947  1
  S  S97  1  0.347154  0.339421  0.320902  1
  S  S98  1  0.325919  0.319183  0.810050  1
  S  S99  1  0.328157  0.847442  0.342636  1
  S  S100  1  0.351505  0.838072  0.827871  1
  S  S101  1  0.827613  0.356074  0.310716  1
  S  S102  1  0.859888  0.319974  0.835120  1
  S  S103  1  0.813663  0.834343  0.353599  1
  S  S104  1  0.846906  0.827819  0.822325  1
  S  S105  1  0.159677  0.174554  0.331813  1
  S  S106  1  0.156823  0.184131  0.829712  1
  S  S107  1  0.181020  0.661220  0.335621  1
  S  S108  1  0.186207  0.668980  0.838327  1
  S  S109  1  0.673444  0.161664  0.334103  1
  S  S110  1  0.672542  0.162035  0.826306  1
  S  S111  1  0.642688  0.653828  0.321255  1
  S  S112  1  0.682096  0.680283  0.843720  1
  S  S113  1  0.192699  0.328317  0.150265  1
  S  S114  1  0.154370  0.329072  0.621604  1
  S  S115  1  0.149217  0.856652  0.184127  1
  S  S116  1  0.147991  0.857794  0.679742  1
  S  S117  1  0.661281  0.332978  0.146056  1
  S  S118  1  0.676757  0.370644  0.678419  1
  S  S119  1  0.666880  0.843221  0.175782  1
  S  S120  1  0.676728  0.826449  0.655925  1
  S  S121  1  0.330201  0.142085  0.179470  1
  S  S122  1  0.308751  0.147310  0.655947  1
  S  S123  1  0.335518  0.663590  0.182315  1
  S  S124  1  0.311321  0.689540  0.637121  1
  S  S125  1  0.832783  0.160988  0.167852  1
  S  S126  1  0.830925  0.176642  0.653192  1
  S  S127  1  0.823421  0.667330  0.183318  1
  S  S128  1  0.830911  0.640349  0.663405  1
