# generated using pymatgen
data_Li3Y(PS4)2
_symmetry_space_group_name_H-M   'P 1'
_cell_length_a   17.12165077
_cell_length_b   9.28979378
_cell_length_c   18.27468036
_cell_angle_alpha   90.00000000
_cell_angle_beta   122.31027001
_cell_angle_gamma   90.00000000
_symmetry_Int_Tables_number   1
_chemical_formula_structural   Li3Y(PS4)2
_chemical_formula_sum   'Li24 Y8 P16 S64'
_cell_volume   2456.65140634
_cell_formula_units_Z   8
loop_
 _symmetry_equiv_pos_site_id
 _symmetry_equiv_pos_as_xyz
  1  'x, y, z'
loop_
 _atom_site_type_symbol
 _atom_site_label
 _atom_site_symmetry_multiplicity
 _atom_site_fract_x
 _atom_site_fract_y
 _atom_site_fract_z
 _atom_site_occupancy
  Li  Li1  1  0.158557  0.381674  0.140519  1
  Li  Li2  1  0.158557  0.381674  0.640519  1
  Li  Li3  1  0.341443  0.881674  0.109481  1
  Li  Li4  1  0.341443  0.881674  0.609481  1
  Li  Li5  1  0.658557  0.881674  0.140519  1
  Li  Li6  1  0.658557  0.881674  0.640519  1
  Li  Li7  1  0.658557  0.118326  0.390519  1
  Li  Li8  1  0.658557  0.118326  0.890519  1
  Li  Li9  1  0.500000  0.085986  0.125000  1
  Li  Li10  1  0.500000  0.085986  0.625000  1
  Li  Li11  1  0.841443  0.381674  0.109481  1
  Li  Li12  1  0.841443  0.381674  0.609481  1
  Li  Li13  1  1.000000  0.585986  0.125000  1
  Li  Li14  1  1.000000  0.585986  0.625000  1
  Li  Li15  1  0.158557  0.618326  0.390519  1
  Li  Li16  1  0.158557  0.618326  0.890519  1
  Li  Li17  1  1.000000  0.414014  0.375000  1
  Li  Li18  1  1.000000  0.414014  0.875000  1
  Li  Li19  1  0.841443  0.618326  0.359481  1
  Li  Li20  1  0.841443  0.618326  0.859481  1
  Li  Li21  1  0.341443  0.118326  0.359481  1
  Li  Li22  1  0.341443  0.118326  0.859481  1
  Li  Li23  1  0.500000  0.914014  0.375000  1
  Li  Li24  1  0.500000  0.914014  0.875000  1
  Y  Y25  1  0.500000  0.466336  0.125000  1
  Y  Y26  1  0.500000  0.466336  0.625000  1
  Y  Y27  1  0.500000  0.533664  0.375000  1
  Y  Y28  1  0.500000  0.533664  0.875000  1
  Y  Y29  1  1.000000  0.033664  0.375000  1
  Y  Y30  1  1.000000  0.033664  0.875000  1
  Y  Y31  1  1.000000  0.966336  0.125000  1
  Y  Y32  1  1.000000  0.966336  0.625000  1
  P  P33  1  0.402941  0.748370  0.467630  1
  P  P34  1  0.402941  0.748370  0.967630  1
  P  P35  1  0.902941  0.248370  0.467630  1
  P  P36  1  0.902941  0.248370  0.967630  1
  P  P37  1  0.902941  0.751630  0.217630  1
  P  P38  1  0.902941  0.751630  0.717630  1
  P  P39  1  0.097059  0.751630  0.032370  1
  P  P40  1  0.097059  0.751630  0.532370  1
  P  P41  1  0.597059  0.251630  0.032370  1
  P  P42  1  0.597059  0.251630  0.532370  1
  P  P43  1  0.597059  0.748370  0.282370  1
  P  P44  1  0.597059  0.748370  0.782370  1
  P  P45  1  0.402941  0.251630  0.217630  1
  P  P46  1  0.402941  0.251630  0.717630  1
  P  P47  1  0.097059  0.248370  0.282370  1
  P  P48  1  0.097059  0.248370  0.782370  1
  S  S49  1  0.368652  0.745587  0.341674  1
  S  S50  1  0.368652  0.745587  0.841674  1
  S  S51  1  0.959578  0.180419  0.210538  1
  S  S52  1  0.959578  0.180419  0.710538  1
  S  S53  1  0.331582  0.402299  0.240508  1
  S  S54  1  0.331582  0.402299  0.740508  1
  S  S55  1  0.881726  0.549152  0.247891  1
  S  S56  1  0.881726  0.549152  0.747891  1
  S  S57  1  0.540422  0.680419  0.039462  1
  S  S58  1  0.540422  0.680419  0.539462  1
  S  S59  1  0.459578  0.319581  0.460538  1
  S  S60  1  0.459578  0.319581  0.960538  1
  S  S61  1  0.959578  0.819581  0.460538  1
  S  S62  1  0.959578  0.819581  0.960538  1
  S  S63  1  0.168418  0.902299  0.009492  1
  S  S64  1  0.168418  0.902299  0.509492  1
  S  S65  1  0.831582  0.097701  0.490508  1
  S  S66  1  0.831582  0.097701  0.990508  1
  S  S67  1  0.668418  0.402299  0.009492  1
  S  S68  1  0.668418  0.402299  0.509492  1
  S  S69  1  0.668418  0.597701  0.259492  1
  S  S70  1  0.668418  0.597701  0.759492  1
  S  S71  1  0.831582  0.902299  0.240508  1
  S  S72  1  0.831582  0.902299  0.740508  1
  S  S73  1  0.040422  0.180419  0.039462  1
  S  S74  1  0.040422  0.180419  0.539462  1
  S  S75  1  0.131348  0.754413  0.158326  1
  S  S76  1  0.131348  0.754413  0.658326  1
  S  S77  1  0.118274  0.450848  0.252109  1
  S  S78  1  0.118274  0.450848  0.752109  1
  S  S79  1  0.381726  0.049152  0.247891  1
  S  S80  1  0.381726  0.049152  0.747891  1
  S  S81  1  0.631348  0.745587  0.408326  1
  S  S82  1  0.631348  0.745587  0.908326  1
  S  S83  1  0.040422  0.819581  0.289462  1
  S  S84  1  0.040422  0.819581  0.789462  1
  S  S85  1  0.618274  0.049152  0.002109  1
  S  S86  1  0.618274  0.049152  0.502109  1
  S  S87  1  0.631348  0.254413  0.158326  1
  S  S88  1  0.631348  0.254413  0.658326  1
  S  S89  1  0.118274  0.549152  0.002109  1
  S  S90  1  0.118274  0.549152  0.502109  1
  S  S91  1  0.459578  0.680419  0.210538  1
  S  S92  1  0.459578  0.680419  0.710538  1
  S  S93  1  0.168418  0.097701  0.259492  1
  S  S94  1  0.168418  0.097701  0.759492  1
  S  S95  1  0.131348  0.245587  0.408326  1
  S  S96  1  0.131348  0.245587  0.908326  1
  S  S97  1  0.381726  0.950848  0.497891  1
  S  S98  1  0.381726  0.950848  0.997891  1
  S  S99  1  0.868652  0.245587  0.341674  1
  S  S100  1  0.868652  0.245587  0.841674  1
  S  S101  1  0.368652  0.254413  0.091674  1
  S  S102  1  0.368652  0.254413  0.591674  1
  S  S103  1  0.881726  0.450848  0.497891  1
  S  S104  1  0.881726  0.450848  0.997891  1
  S  S105  1  0.540422  0.319581  0.289462  1
  S  S106  1  0.540422  0.319581  0.789462  1
  S  S107  1  0.618274  0.950848  0.252109  1
  S  S108  1  0.618274  0.950848  0.752109  1
  S  S109  1  0.868652  0.754413  0.091674  1
  S  S110  1  0.868652  0.754413  0.591674  1
  S  S111  1  0.331582  0.597701  0.490508  1
  S  S112  1  0.331582  0.597701  0.990508  1
